Input Parameters:
   integrator                     = md
   tinit                          = 0
   dt                             = 0.002
   nsteps                         = 500000
   init-step                      = 0
   simulation-part                = 1
   mts                            = false
   comm-mode                      = Linear
   nstcomm                        = 100
   bd-fric                        = 0
   ld-seed                        = 1459366654
   emtol                          = 10
   emstep                         = 0.01
   niter                          = 20
   fcstep                         = 0
   nstcgsteep                     = 1000
   nbfgscorr                      = 10
   rtpi                           = 0.05
   nstxout                        = 0
   nstvout                        = 0
   nstfout                        = 0
   nstlog                         = 5000
   nstcalcenergy                  = 100
   nstenergy                      = 5000
   nstxout-compressed             = 5000
   compressed-x-precision         = 1000
   cutoff-scheme                  = Verlet
   nstlist                        = 10
   pbc                            = xyz
   periodic-molecules             = false
   verlet-buffer-tolerance        = 0.005
   rlist                          = 1
   coulombtype                    = PME
   coulomb-modifier               = Potential-shift
   rcoulomb-switch                = 0
   rcoulomb                       = 1
   epsilon-r                      = 1
   epsilon-rf                     = inf
   vdw-type                       = Cut-off
   vdw-modifier                   = Potential-shift
   rvdw-switch                    = 0
   rvdw                           = 1
   DispCorr                       = EnerPres
   table-extension                = 1
   fourierspacing                 = 0.16
   fourier-nx                     = 32
   fourier-ny                     = 32
   fourier-nz                     = 32
   pme-order                      = 4
   ewald-rtol                     = 1e-05
   ewald-rtol-lj                  = 0.001
   lj-pme-comb-rule               = Geometric
   ewald-geometry                 = 0
   epsilon-surface                = 0
   tcoupl                         = V-rescale
   nsttcouple                     = 10
   nh-chain-length                = 0
   print-nose-hoover-chain-variables = false
   pcoupl                         = Berendsen
   pcoupltype                     = Isotropic
   nstpcouple                     = 10
   tau-p                          = 2
   compressibility (3x3):
      compressibility[    0]={ 4.50000e-05,  0.00000e+00,  0.00000e+00}
      compressibility[    1]={ 0.00000e+00,  4.50000e-05,  0.00000e+00}
      compressibility[    2]={ 0.00000e+00,  0.00000e+00,  4.50000e-05}
   ref-p (3x3):
      ref-p[    0]={ 1.00000e+00,  0.00000e+00,  0.00000e+00}
      ref-p[    1]={ 0.00000e+00,  1.00000e+00,  0.00000e+00}
      ref-p[    2]={ 0.00000e+00,  0.00000e+00,  1.00000e+00}
   refcoord-scaling               = No
   posres-com (3):
      posres-com[0]= 0.00000e+00
      posres-com[1]= 0.00000e+00
      posres-com[2]= 0.00000e+00
   posres-comB (3):
      posres-comB[0]= 0.00000e+00
      posres-comB[1]= 0.00000e+00
      posres-comB[2]= 0.00000e+00
   QMMM                           = false
qm-opts:
   ngQM                           = 0
   constraint-algorithm           = Lincs
   continuation                   = true
   Shake-SOR                      = false
   shake-tol                      = 0.0001
   lincs-order                    = 4
   lincs-iter                     = 1
   lincs-warnangle                = 30
   nwall                          = 0
   wall-type                      = 9-3
   wall-r-linpot                  = -1
   wall-atomtype[0]               = -1
   wall-atomtype[1]               = -1
   wall-density[0]                = 0
   wall-density[1]                = 0
   wall-ewald-zfac                = 3
   pull                           = false
   awh                            = false
   rotation                       = false
   interactiveMD                  = false
   disre                          = No
   disre-weighting                = Conservative
   disre-mixed                    = false
   dr-fc                          = 1000
   dr-tau                         = 0
   nstdisreout                    = 100
   orire-fc                       = 0
   orire-tau                      = 0
   nstorireout                    = 100
   free-energy                    = yes
   init-lambda                    = -1
   init-lambda-state              = 1
   delta-lambda                   = 0
   nstdhdl                        = 5000
   n-lambdas                      = 6
   separate-dvdl:
       fep-lambdas =   TRUE
      mass-lambdas =   FALSE
      coul-lambdas =   FALSE
       vdw-lambdas =   FALSE
    bonded-lambdas =   FALSE
 restraint-lambdas =   FALSE
temperature-lambdas =   FALSE
all-lambdas:
       fep-lambdas =            0         0.2         0.4         0.6         0.8           1
      mass-lambdas =            0         0.2         0.4         0.6         0.8           1
      coul-lambdas =            0         0.2         0.4         0.6         0.8           1
       vdw-lambdas =            0         0.2         0.4         0.6         0.8           1
    bonded-lambdas =            0         0.2         0.4         0.6         0.8           1
 restraint-lambdas =            0         0.2         0.4         0.6         0.8           1
temperature-lambdas =            0         0.2         0.4         0.6         0.8           1
   calc-lambda-neighbors          = -1
   dhdl-print-energy              = total
   sc-alpha                       = 0
   sc-power                       = 1
   sc-r-power                     = 6
   sc-sigma                       = 0.3
   sc-sigma-min                   = 0.3
   sc-coul                        = false
   dh-hist-size                   = 0
   dh-hist-spacing                = 0.1
   separate-dhdl-file             = yes
   dhdl-derivatives               = yes
   cos-acceleration               = 0
   deform (3x3):
      deform[    0]={ 0.00000e+00,  0.00000e+00,  0.00000e+00}
      deform[    1]={ 0.00000e+00,  0.00000e+00,  0.00000e+00}
      deform[    2]={ 0.00000e+00,  0.00000e+00,  0.00000e+00}
   simulated-tempering            = false
   swapcoords                     = no
   userint1                       = 0
   userint2                       = 0
   userint3                       = 0
   userint4                       = 0
   userreal1                      = 0
   userreal2                      = 0
   userreal3                      = 0
   userreal4                      = 0
   applied-forces:
     electric-field:
       x:
         E0                       = 0
         omega                    = 0
         t0                       = 0
         sigma                    = 0
       y:
         E0                       = 0
         omega                    = 0
         t0                       = 0
         sigma                    = 0
       z:
         E0                       = 0
         omega                    = 0
         t0                       = 0
         sigma                    = 0
     density-guided-simulation:
       active                     = false
       group                      = protein
       similarity-measure         = inner-product
       atom-spreading-weight      = unity
       force-constant             = 1e+09
       gaussian-transform-spreading-width = 0.2
       gaussian-transform-spreading-range-in-multiples-of-width = 4
       reference-density-filename = reference.mrc
       nst                        = 1
       normalize-densities        = true
       adaptive-force-scaling     = false
       adaptive-force-scaling-time-constant = 4
grpopts:
   nrdf:      504.92     18357.1
   ref-t:         300         300
   tau-t:         0.1         0.1
annealing:          No          No
annealing-npoints:           0           0
   acc:	           0           0           0
   nfreeze:           N           N           N
   energygrp-flags[  0]: 0

Changing nstlist from 10 to 100, rlist from 1 to 1.039

Initializing Domain Decomposition on 16 ranks
Dynamic load balancing: auto
Minimum cell size due to atom displacement: 0.760 nm
Initial maximum distances in bonded interactions:
    two-body bonded interactions: 0.394 nm, LJ-14, atoms 10 14
  multi-body bonded interactions: 0.394 nm, Proper Dih., atoms 10 14
Minimum cell size due to bonded interactions: 0.433 nm
Maximum distance for 5 constraints, at 120 deg. angles, all-trans: 0.219 nm
Estimated maximum distance required for P-LINCS: 0.219 nm
Scaling the initial minimum size with 1/0.8 (option -dds) = 1.25
Using 0 separate PME ranks, as there are too few total
 ranks for efficient splitting
Optimizing the DD grid for 16 cells with a minimum initial size of 0.950 nm
The maximum allowed number of cells is: X 5 Y 5 Z 5
Domain decomposition grid 4 x 4 x 1, separate PME ranks 0
PME domain decomposition: 4 x 4 x 1
Domain decomposition rank 0, coordinates 0 0 0

The initial number of communication pulses is: X 1 Y 1
The initial domain decomposition cell size is: X 1.23 nm Y 1.23 nm

The maximum allowed distance for atoms involved in interactions is:
                 non-bonded interactions           1.039 nm
(the following are initial values, they could change due to box deformation)
            two-body bonded interactions  (-rdd)   1.039 nm
          multi-body bonded interactions  (-rdd)   1.039 nm
  atoms separated by up to 5 constraints  (-rcon)  1.235 nm

When dynamic load balancing gets turned on, these settings will change to:
The maximum number of communication pulses is: X 2 Y 2
The minimum size for domain decomposition cells is 0.834 nm
The requested allowed shrink of DD cells (option -dds) is: 0.80
The allowed shrink of domain decomposition cells is: X 0.68 Y 0.68
The maximum allowed distance for atoms involved in interactions is:
                 non-bonded interactions           1.039 nm
            two-body bonded interactions  (-rdd)   1.039 nm
          multi-body bonded interactions  (-rdd)   0.834 nm
  atoms separated by up to 5 constraints  (-rcon)  0.834 nm

This is simulation 1 out of 6 running as a composite GROMACS
multi-simulation job. Setup for this simulation:

Using 16 MPI processes

Non-default thread affinity set, disabling internal thread affinity

Using 1 OpenMP thread per MPI process

System total charge, top. A: -0.000 top. B: -0.000
Will do PME sum in reciprocal space for electrostatic interactions.

Using a Gaussian width (1/beta) of 0.320163 nm for Ewald
Potential shift: LJ r^-12: -1.000e+00 r^-6: -1.000e+00, Ewald -1.000e-05
Initialized non-bonded Ewald tables, spacing: 9.33e-04 size: 2187

Generated table with 1019 data points for 1-4 COUL.
Tabscale = 500 points/nm
Generated table with 1019 data points for 1-4 LJ6.
Tabscale = 500 points/nm
Generated table with 1019 data points for 1-4 LJ12.
Tabscale = 500 points/nm
Long Range LJ corr.: <C6> 1.1004e-03

Using SIMD 4x4 nonbonded short-range kernels

Using a dual 4x4 pair-list setup updated with dynamic pruning:
  outer list: updated every 100 steps, buffer 0.039 nm, rlist 1.039 nm
  inner list: updated every  62 steps, buffer 0.001 nm, rlist 1.001 nm
At tolerance 0.005 kJ/mol/ps per atom, equivalent classical 1x1 list would be:
  outer list: updated every 100 steps, buffer 0.208 nm, rlist 1.208 nm
  inner list: updated every  62 steps, buffer 0.135 nm, rlist 1.135 nm

Using Lorentz-Berthelot Lennard-Jones combination rule
There are 0 atoms and 0 charges for free energy perturbation

Initializing Parallel LINear Constraint Solver

The number of constraints is 3761
There are constraints between atoms in different decomposition domains,
will communicate selected coordinates each lincs iteration

Linking all bonded interactions to atoms

Intra-simulation communication will occur every 10 steps.
Initial vector of lambda components:[     0.2000     0.2000     0.2000     0.2000     0.2000     0.2000     0.2000 ]

There are: 7542 Atoms
Atom distribution over 16 domains: av 471 stddev 28 min 435 max 517

Initializing Replica Exchange
Repl  There are 6 replicas:
Multi-checking the number of atoms ... OK
Multi-checking the integrator ... OK
Multi-checking init_step+nsteps ... OK
Multi-checking first exchange step: init_step/-replex ... OK
Multi-checking the temperature coupling ... OK
Multi-checking the number of temperature coupling groups ... OK
Multi-checking the pressure coupling ... OK
Multi-checking free energy ... OK
Multi-checking number of lambda states ... OK

Replica exchange in lambda
   0   1   2   3   4   5

Replica exchange interval: 5000

Replica random seed: -2711561
Replica exchange information below: ex and x = exchange, pr = probability
Center of mass motion removal mode is Linear
We have the following groups for center of mass motion removal:
  0:  rest

Started mdrun on rank 0 Tue Jul  9 14:07:24 2024

           Step           Time
              0        0.00000

   Energies (kJ/mol)
           Bond          Angle    Proper Dih.  Improper Dih.          LJ-14
    3.46345e+03    1.11174e+04    5.14887e+02    2.41713e+01    4.17695e+01
     Coulomb-14        LJ (SR)  Disper. corr.   Coulomb (SR)   Coul. recip.
   -3.49895e+04   -1.75924e+04   -2.17163e+03   -1.62826e+04    1.65035e+03
      Potential    Kinetic En.   Total Energy  Conserved En.    Temperature
   -5.42242e+04    2.41048e+04   -3.01194e+04   -3.01195e+04    3.07406e+02
   -2.99834e+02    2.60263e+01   -9.29586e+01    4.24544e-06

	<====  A V E R A G E S  ====>

	Statistics over 500001 steps using 5001 frames

   Energies (kJ/mol)
           Bond          Angle    Proper Dih.  Improper Dih.          LJ-14
    3.34922e+03    1.10126e+04    4.95320e+02    2.20705e+01    3.85777e+01
     Coulomb-14        LJ (SR)  Disper. corr.   Coulomb (SR)   Coul. recip.
   -3.49983e+04   -1.79713e+04   -2.20819e+03   -1.62412e+04    1.66453e+03
      Potential    Kinetic En.   Total Energy  Conserved En.    Temperature
   -5.48367e+04    2.35219e+04   -3.13147e+04   -3.10583e+04    2.99972e+02
 Pres. DC (bar) Pressure (bar)    dVremain/dl   Constr. rmsd
   -3.09999e+02   -3.63902e+00   -1.85278e+00    0.00000e+00

          Box-X          Box-Y          Box-Z
    4.91191e+00    4.91191e+00    4.91191e+00

   Total Virial (kJ/mol)
    7.86042e+03   -1.67189e+01   -7.30400e+00
   -1.67189e+01    7.85116e+03    1.07458e+01
   -7.30398e+00    1.07455e+01    7.84945e+03

   Pressure (bar)
   -6.07509e+00    4.95413e+00    2.03584e+00
    4.95411e+00   -2.53663e+00   -3.23875e+00
    2.03583e+00   -3.23865e+00   -2.30532e+00

      T-peptoid          T-UNL
    2.99780e+02    2.99978e+02

Replica exchange statistics
Repl  99 attempts, 50 odd, 49 even
Repl  average probabilities:
Repl     0    1    2    3    4    5
Repl      .87  .88  .85  .85  .80
Repl  number of exchanges:
Repl     0    1    2    3    4    5
Repl       44   42   45   42   39
Repl  average number of exchanges:
Repl     0    1    2    3    4    5
Repl      .88  .86  .90  .86  .78

Repl                        Empirical Transition Matrix
Repl       1       2       3       4       5       6
Repl  0.5556  0.4444  0.0000  0.0000  0.0000  0.0000  0
Repl  0.4444  0.1313  0.4242  0.0000  0.0000  0.0000  1
Repl  0.0000  0.4242  0.1212  0.4545  0.0000  0.0000  2
Repl  0.0000  0.0000  0.4545  0.1212  0.4242  0.0000  3
Repl  0.0000  0.0000  0.0000  0.4242  0.1818  0.3939  4
Repl  0.0000  0.0000  0.0000  0.0000  0.3939  0.6061  5
